  
       XFOIL         Version 6.99
  
 Calculated polar for: NACA 4412                                       
  
 1 1 Reynolds number fixed          Mach number fixed         
  
 xtrf =   0.900 (top)        0.800 (bottom)  
 Mach =   0.000     Re =     0.330 e 6     Ncrit =   9.000  9.000
  
   alpha    CL        CD       CDp       CM     Top_Xtr  Bot_Xtr  Top_Itr  Bot_Itr
  ------ -------- --------- --------- -------- -------- -------- -------- --------
 -12.000  -0.3414   0.12623   0.11899  -0.0431   0.9000   0.0385  15.0352 185.1052
 -11.500  -0.3264   0.12019   0.11258  -0.0455   0.9000   0.0407  15.0352 185.7659
 -11.000  -0.3180   0.11283   0.10481  -0.0489   0.9000   0.0423  15.0352 186.2435
 -10.500  -0.3229   0.10318   0.09374  -0.0557   0.9000   0.0451  15.0352 187.0338
 -10.000  -0.2993   0.09884   0.09053  -0.0557   0.9000   0.0467  15.0352 187.4523
  -9.000  -0.3715   0.06131   0.05232  -0.0841   0.9000   0.0383  15.0352 185.0506
  -8.500  -0.3404   0.05792   0.04956  -0.0893   0.9000   0.0422  15.0352 186.2148
  -8.000  -0.4002   0.02126   0.01094  -0.1063   0.9000   0.0374  15.0352 184.7447
  -7.500  -0.3498   0.01921   0.00906  -0.1062   0.9000   0.0399  15.0352 185.5478
  -7.000  -0.2973   0.01752   0.00752  -0.1063   0.9000   0.0431  15.0352 186.4830
  -6.500  -0.2432   0.01616   0.00635  -0.1064   0.9000   0.0471  15.0352 187.5433
  -6.000  -0.1881   0.01502   0.00542  -0.1066   0.9000   0.0519  15.0352 188.7549
  -5.500  -0.1322   0.01403   0.00467  -0.1070   0.9000   0.0580  15.0352 190.1078
  -5.000  -0.0756   0.01325   0.00420  -0.1075   0.9000   0.0657  15.0352 191.6371
  -4.500  -0.0183   0.01260   0.00383  -0.1083   0.9000   0.0758  15.0352 193.4450
  -4.000   0.0380   0.01202   0.00347  -0.1086   0.8931   0.0898  15.8550 195.6281
  -3.500   0.0925   0.01136   0.00300  -0.1080   0.8765   0.1088  17.8097 198.2976
  -3.000   0.1473   0.01081   0.00262  -0.1074   0.8586   0.1361  19.9066 201.7622
  -2.500   0.2017   0.01035   0.00233  -0.1069   0.8385   0.1737  22.2519 206.2254
  -1.500   0.3105   0.00961   0.00194  -0.1059   0.7936   0.2913  27.4883 219.4001
  -1.000   0.3639   0.00917   0.00179  -0.1053   0.7691   0.3966  30.3458 231.0980
  -0.500   0.4105   0.00823   0.00183  -0.1033   0.7436   0.7120  33.3115 265.8399
   0.000   0.4614   0.00813   0.00177  -0.1017   0.7171   0.8000  36.3876 275.5765
   0.500   0.5168   0.00834   0.00170  -0.1013   0.6902   0.8000  39.5105 275.5765
   1.000   0.5718   0.00859   0.00167  -0.1009   0.6639   0.8000  42.5525 275.5765
   1.500   0.6265   0.00887   0.00168  -0.1006   0.6391   0.8000  45.4310 275.5765
   2.000   0.6812   0.00918   0.00172  -0.1002   0.6165   0.8000  48.0489 275.5765
   2.500   0.7356   0.00950   0.00180  -0.0999   0.5950   0.8000  50.5370 275.5765
   3.000   0.7900   0.00984   0.00189  -0.0996   0.5758   0.8000  52.7670 275.5765
   3.500   0.8442   0.01020   0.00200  -0.0992   0.5578   0.8000  54.8457 275.5765
   4.000   0.8981   0.01057   0.00213  -0.0989   0.5406   0.8000  56.8402 275.5765
   4.500   0.9516   0.01095   0.00226  -0.0984   0.5237   0.8000  58.8037 275.5765
   5.000   1.0043   0.01134   0.00240  -0.0979   0.5065   0.8000  60.8039 275.5765
   5.500   1.0560   0.01175   0.00251  -0.0972   0.4880   0.8000  62.9565 275.5765
   6.000   1.1060   0.01213   0.00261  -0.0961   0.4654   0.8000  65.5858 275.5765
   6.500   1.1548   0.01255   0.00269  -0.0949   0.4417   0.8000  68.3455 275.5765
   7.000   1.2025   0.01301   0.00279  -0.0935   0.4167   0.8000  71.2828 275.5765
   7.500   1.2484   0.01352   0.00290  -0.0918   0.3874   0.8000  74.7728 275.5765
   8.000   1.2911   0.01419   0.00305  -0.0896   0.3502   0.8000  79.2876 275.5765
   8.500   1.3280   0.01519   0.00333  -0.0866   0.3013   0.8000  85.2801 275.5765
   9.000   1.3561   0.01666   0.00387  -0.0824   0.2398   0.8000  92.9542 275.5765
   9.500   1.3725   0.01865   0.00475  -0.0765   0.1735   0.8000 101.4787 275.5765
  10.000   1.3845   0.02115   0.00605  -0.0706   0.1179   0.8000 109.0449 275.5765
  10.500   1.3958   0.02381   0.00757  -0.0652   0.0857   0.8000 113.9068 275.5765
  11.000   1.4072   0.02664   0.00929  -0.0604   0.0687   0.8000 116.8049 275.5765
  11.500   1.4173   0.02980   0.01131  -0.0563   0.0586   0.8000 118.7599 275.5765
  12.000   1.4241   0.03348   0.01378  -0.0526   0.0519   0.8000 120.1903 275.5765
  12.500   1.4303   0.03754   0.01660  -0.0497   0.0468   0.8000 121.3932 275.5765
  13.000   1.4334   0.04215   0.01990  -0.0473   0.0430   0.8000 122.3636 275.5765
  13.500   1.4345   0.04724   0.02360  -0.0454   0.0400   0.8000 123.1830 275.5765
  14.000   1.4357   0.05254   0.02752  -0.0440   0.0374   0.8000 123.9312 275.5765
  14.500   1.4380   0.05798   0.03162  -0.0431   0.0350   0.8000 124.6730 275.5765
  15.000   1.4392   0.06362   0.03587  -0.0423   0.0331   0.8000 125.2903 275.5765
  15.500   1.4425   0.06911   0.04000  -0.0418   0.0313   0.8000 125.8918 275.5765
  16.000   1.4450   0.07487   0.04452  -0.0416   0.0296   0.8000 126.4843 275.5765
  16.500   1.4528   0.07965   0.04795  -0.0410   0.0282   0.8000 127.0071 275.5765
  17.000   1.4524   0.08621   0.05358  -0.0417   0.0269   0.8000 127.5359 275.5765
  17.500   1.4635   0.09053   0.05674  -0.0412   0.0257   0.8000 128.0100 275.5765
  18.000   1.4583   0.09807   0.06394  -0.0429   0.0246   0.8000 128.4526 275.5765
