  
       XFOIL         Version 6.99
  
 Calculated polar for: NACA 4412                                       
  
 1 1 Reynolds number fixed          Mach number fixed         
  
 xtrf =   1.000 (top)        1.000 (bottom)  
 Mach =   0.000     Re =     0.400 e 6     Ncrit =   9.000  9.000
  
   alpha    CL        CD       CDp       CM     Top_Xtr  Bot_Xtr  Top_Itr  Bot_Itr
  ------ -------- --------- --------- -------- -------- -------- -------- --------
 -14.000  -0.3998   0.15433   0.15504  -0.0260   1.0000   0.0281   1.0000 181.3421
 -11.000  -0.3441   0.11473   0.10746  -0.0412   1.0000   0.0373   1.0000 184.7083
 -10.000  -0.6473   0.04398   0.03439  -0.0781   0.9939   0.0267   2.3862 180.7555
  -9.500  -0.6272   0.02919   0.01918  -0.0902   0.9832   0.0278   4.2969 181.2133
  -9.000  -0.5707   0.02476   0.01455  -0.0941   0.9769   0.0295   5.2892 181.9102
  -8.500  -0.5040   0.02234   0.01245  -0.0980   0.9724   0.0314   5.9509 182.6460
  -8.000  -0.4390   0.01999   0.01025  -0.1011   0.9663   0.0336   6.8155 183.4681
  -7.500  -0.3697   0.01806   0.00850  -0.1046   0.9604   0.0364   7.6137 184.4328
  -7.000  -0.3024   0.01649   0.00715  -0.1074   0.9534   0.0398   8.5329 185.4991
  -6.500  -0.2401   0.01518   0.00606  -0.1088   0.9450   0.0437   9.6004 186.6524
  -6.000  -0.1812   0.01409   0.00513  -0.1094   0.9354   0.0485  10.7896 187.9315
  -5.500  -0.1255   0.01308   0.00441  -0.1092   0.9241   0.0541  12.1605 189.2583
  -5.000  -0.0711   0.01230   0.00380  -0.1087   0.9107   0.0615  13.7661 190.8320
  -4.500  -0.0171   0.01157   0.00327  -0.1081   0.8959   0.0709  15.5161 192.6027
  -4.000   0.0374   0.01095   0.00280  -0.1076   0.8800   0.0840  17.3908 194.7538
  -3.500   0.0919   0.01041   0.00242  -0.1071   0.8624   0.1019  19.4535 197.3616
  -3.000   0.1467   0.00996   0.00210  -0.1066   0.8433   0.1275  21.6920 200.6966
  -2.500   0.2016   0.00959   0.00185  -0.1062   0.8231   0.1630  24.0562 204.9841
  -2.000   0.2561   0.00927   0.00169  -0.1057   0.8003   0.2096  26.7099 210.3302
  -1.500   0.3106   0.00900   0.00156  -0.1053   0.7764   0.2706  29.4917 217.1177
  -1.000   0.3645   0.00870   0.00145  -0.1049   0.7513   0.3558  32.4200 226.5428
  -0.500   0.4149   0.00799   0.00144  -0.1039   0.7251   0.5979  35.4556 253.2482
   0.500   0.5391   0.00744   0.00148  -0.1053   0.6710   1.0000  41.7272 300.0000
   1.000   0.5900   0.00769   0.00145  -0.1041   0.6448   1.0000  44.7670 300.0000
   1.500   0.6416   0.00797   0.00146  -0.1032   0.6202   1.0000  47.6211 300.0000
   2.000   0.6936   0.00827   0.00150  -0.1023   0.5979   1.0000  50.2067 300.0000
   2.500   0.7461   0.00857   0.00156  -0.1016   0.5772   1.0000  52.5948 300.0000
   3.000   0.7988   0.00890   0.00164  -0.1010   0.5586   1.0000  54.7520 300.0000
   3.500   0.8516   0.00923   0.00174  -0.1004   0.5413   1.0000  56.7674 300.0000
   4.000   0.9042   0.00958   0.00185  -0.0998   0.5246   1.0000  58.7011 300.0000
   4.500   0.9567   0.00993   0.00197  -0.0991   0.5081   1.0000  60.6109 300.0000
   5.000   1.0085   0.01030   0.00208  -0.0984   0.4911   1.0000  62.5902 300.0000
   5.500   1.0593   0.01068   0.00218  -0.0975   0.4720   1.0000  64.8190 300.0000
   6.000   1.1089   0.01106   0.00226  -0.0964   0.4493   1.0000  67.4562 300.0000
   6.500   1.1577   0.01148   0.00235  -0.0952   0.4262   1.0000  70.1644 300.0000
   7.000   1.2055   0.01193   0.00246  -0.0938   0.4004   1.0000  73.2102 300.0000
   7.500   1.2511   0.01248   0.00258  -0.0921   0.3686   1.0000  77.0430 300.0000
   8.000   1.2929   0.01324   0.00278  -0.0898   0.3271   1.0000  82.1153 300.0000
   8.500   1.3286   0.01436   0.00315  -0.0867   0.2732   1.0000  88.7743 300.0000
   9.000   1.3554   0.01593   0.00377  -0.0822   0.2091   1.0000  96.8543 300.0000
   9.500   1.3726   0.01790   0.00467  -0.0764   0.1473   1.0000 104.9681 300.0000
  10.000   1.3880   0.02010   0.00580  -0.0708   0.1012   1.0000 111.4890 300.0000
  10.500   1.4033   0.02241   0.00709  -0.0658   0.0752   1.0000 115.6544 300.0000
  11.000   1.4181   0.02491   0.00857  -0.0612   0.0611   1.0000 118.2652 300.0000
  11.500   1.4306   0.02776   0.01035  -0.0570   0.0524   1.0000 120.0897 300.0000
  12.000   1.4428   0.03088   0.01238  -0.0535   0.0461   1.0000 121.5703 300.0000
  12.500   1.4510   0.03458   0.01489  -0.0504   0.0417   1.0000 122.7137 300.0000
  13.000   1.4565   0.03883   0.01788  -0.0478   0.0382   1.0000 123.6789 300.0000
  13.500   1.4590   0.04366   0.02136  -0.0458   0.0355   1.0000 124.4993 300.0000
  14.000   1.4586   0.04907   0.02536  -0.0443   0.0334   1.0000 125.1837 300.0000
  14.500   1.4595   0.05465   0.02956  -0.0435   0.0314   1.0000 125.8554 300.0000
  15.000   1.4587   0.06064   0.03415  -0.0429   0.0297   1.0000 126.4761 300.0000
  15.500   1.4567   0.06683   0.03889  -0.0427   0.0283   1.0000 126.9784 300.0000
  16.000   1.4569   0.07310   0.04391  -0.0429   0.0268   1.0000 127.5621 300.0000
  16.500   1.4574   0.07907   0.04853  -0.0429   0.0257   1.0000 128.0146 300.0000
  17.000   1.4563   0.08580   0.05426  -0.0438   0.0245   1.0000 128.5269 300.0000
  17.500   1.4602   0.09144   0.05884  -0.0442   0.0235   1.0000 128.9602 300.0000
  18.000   1.4578   0.09848   0.06535  -0.0457   0.0225   1.0000 129.4055 300.0000
  18.500   1.4599   0.10476   0.07126  -0.0471   0.0216   1.0000 129.8080 300.0000
  19.000   1.4617   0.11099   0.07751  -0.0487   0.0209   1.0000 130.1833 300.0000
  19.500   1.4583   0.11855   0.08598  -0.0516   0.0201   1.0000 130.5667 300.0000
  20.000   1.4638   0.12428   0.09251  -0.0538   0.0194   1.0000 130.9035 300.0000
  20.500   1.4578   0.13241   0.10305  -0.0578   0.0189   1.0000 131.1871 300.0000
  21.000   1.4466   0.14194   0.11657  -0.0635   0.0184   1.0000 131.4710 300.0000
  21.500   1.4439   0.14979   0.12830  -0.0685   0.0178   1.0000 131.7539 300.0000
  22.000   1.4497   0.15552   0.13721  -0.0721   0.0173   1.0000 132.0246 300.0000
  22.500   1.4198   0.17007   0.16268  -0.0832   0.0171   1.0000 132.1417 300.0000
  23.000   1.3830   0.18725   0.19595  -0.0971   0.0170   1.0000 132.1997 300.0000
  23.500   1.3103   0.21673   0.26092  -0.1213   0.0173   1.0000 132.0331 300.0000
  24.000   1.2033   0.28441   0.43400  -0.1636   0.0214   1.0000 129.9339 300.0000
  24.500   1.2153   0.29232   0.45882  -0.1703   0.0197   1.0000 130.7560 300.0000
  25.000   1.2288   0.29859   0.47920  -0.1758   0.0189   1.0000 131.1888 300.0000
