  
       XFOIL         Version 6.99
  
 Calculated polar for: NACA 4412                                       
  
 1 1 Reynolds number fixed          Mach number fixed         
  
 xtrf =   1.000 (top)        1.000 (bottom)  
 Mach =   0.000     Re =     0.450 e 6     Ncrit =   9.000  9.000
  
   alpha    CL        CD       CDp       CM     Top_Xtr  Bot_Xtr  Top_Itr  Bot_Itr
  ------ -------- --------- --------- -------- -------- -------- -------- --------
 -12.000  -0.3719   0.12438   0.11685  -0.0401   1.0000   0.0323   1.0000 183.0156
 -11.500  -0.3519   0.12008   0.11343  -0.0397   1.0000   0.0330   1.0000 183.2412
 -11.000  -0.3622   0.11067   0.10246  -0.0442   1.0000   0.0352   1.0000 184.0344
 -10.500  -0.3473   0.10707   0.09976  -0.0427   1.0000   0.0360   1.0000 184.3062
 -10.000  -0.6053   0.05783   0.04908  -0.0618   0.9968   0.0257   1.7694 180.3274
  -9.500  -0.5185   0.06672   0.05857  -0.0564   0.9961   0.0275   1.9620 181.1279
  -9.000  -0.4434   0.07069   0.06304  -0.0573   0.9931   0.0303   2.5339 182.2459
  -8.500  -0.4921   0.01996   0.01029  -0.1008   0.9698   0.0302   6.3201 182.1980
  -8.000  -0.4216   0.01806   0.00854  -0.1047   0.9659   0.0326   6.8697 183.1021
  -7.500  -0.3550   0.01653   0.00721  -0.1074   0.9592   0.0353   7.7788 184.0637
  -7.000  -0.2925   0.01520   0.00615  -0.1090   0.9511   0.0384   8.8335 185.0940
  -6.500  -0.2341   0.01407   0.00528  -0.1096   0.9420   0.0421   9.9740 186.1890
  -6.000  -0.1804   0.01315   0.00459  -0.1091   0.9297   0.0464  11.4821 187.3696
  -5.500  -0.1255   0.01233   0.00393  -0.1088   0.9179   0.0520  12.9085 188.7675
  -5.000  -0.0721   0.01157   0.00337  -0.1081   0.9035   0.0589  14.6253 190.2897
  -4.500  -0.0178   0.01095   0.00288  -0.1075   0.8883   0.0682  16.4179 192.1096
  -4.000   0.0367   0.01039   0.00247  -0.1070   0.8717   0.0806  18.3698 194.2280
  -3.500   0.0914   0.00994   0.00213  -0.1066   0.8535   0.0981  20.5018 196.8382
  -3.000   0.1463   0.00953   0.00185  -0.1062   0.8340   0.1226  22.7812 200.0900
  -2.500   0.2011   0.00919   0.00164  -0.1058   0.8129   0.1564  25.2442 204.2001
  -2.000   0.2559   0.00892   0.00148  -0.1054   0.7902   0.2011  27.8845 209.3711
  -1.500   0.3104   0.00868   0.00137  -0.1050   0.7659   0.2587  30.7203 215.8068
  -1.000   0.3646   0.00844   0.00129  -0.1046   0.7404   0.3358  33.6859 224.3266
  -0.500   0.4164   0.00789   0.00126  -0.1040   0.7140   0.5286  36.7467 245.6206
   0.000   0.4601   0.00714   0.00137  -0.1009   0.6876   0.8372  39.8029 279.6884
   1.000   0.5898   0.00739   0.00133  -0.1040   0.6340   1.0000  46.0210 300.0000
   1.500   0.6414   0.00765   0.00134  -0.1031   0.6095   1.0000  48.8577 300.0000
   2.000   0.6936   0.00794   0.00138  -0.1023   0.5872   1.0000  51.4372 300.0000
   2.500   0.7461   0.00824   0.00144  -0.1016   0.5672   1.0000  53.7585 300.0000
   3.000   0.7989   0.00855   0.00152  -0.1010   0.5490   1.0000  55.8658 300.0000
   3.500   0.8517   0.00887   0.00161  -0.1004   0.5320   1.0000  57.8442 300.0000
   4.000   0.9046   0.00920   0.00171  -0.0998   0.5156   1.0000  59.7473 300.0000
   4.500   0.9571   0.00954   0.00182  -0.0992   0.4993   1.0000  61.6350 300.0000
   5.000   1.0091   0.00989   0.00193  -0.0985   0.4823   1.0000  63.6139 300.0000
   5.500   1.0600   0.01026   0.00202  -0.0976   0.4628   1.0000  65.8874 300.0000
   6.000   1.1101   0.01063   0.00211  -0.0966   0.4401   1.0000  68.5416 300.0000
   6.500   1.1593   0.01105   0.00220  -0.0955   0.4169   1.0000  71.2603 300.0000
   7.000   1.2076   0.01149   0.00231  -0.0943   0.3899   1.0000  74.4655 300.0000
   7.500   1.2534   0.01207   0.00244  -0.0926   0.3558   1.0000  78.5984 300.0000
   8.000   1.2947   0.01292   0.00268  -0.0903   0.3115   1.0000  84.0235 300.0000
   8.500   1.3300   0.01412   0.00311  -0.0871   0.2546   1.0000  91.0868 300.0000
   9.000   1.3570   0.01573   0.00377  -0.0827   0.1897   1.0000  99.3620 300.0000
   9.500   1.3753   0.01764   0.00466  -0.0770   0.1320   1.0000 107.0594 300.0000
  10.000   1.3928   0.01970   0.00572  -0.0717   0.0919   1.0000 112.9151 300.0000
  10.500   1.4107   0.02182   0.00689  -0.0669   0.0692   1.0000 116.7124 300.0000
  11.000   1.4275   0.02414   0.00824  -0.0624   0.0567   1.0000 119.1641 300.0000
  11.500   1.4424   0.02677   0.00985  -0.0583   0.0486   1.0000 120.9430 300.0000
  12.000   1.4561   0.02970   0.01173  -0.0548   0.0429   1.0000 122.3754 300.0000
  12.500   1.4664   0.03314   0.01402  -0.0516   0.0388   1.0000 123.5267 300.0000
  13.000   1.4733   0.03716   0.01681  -0.0489   0.0356   1.0000 124.4735 300.0000
  13.500   1.4766   0.04182   0.02013  -0.0467   0.0331   1.0000 125.2646 300.0000
  14.000   1.4772   0.04705   0.02396  -0.0452   0.0311   1.0000 125.9504 300.0000
  14.500   1.4791   0.05249   0.02804  -0.0442   0.0292   1.0000 126.6463 300.0000
  15.000   1.4757   0.05874   0.03281  -0.0437   0.0278   1.0000 127.1745 300.0000
  15.500   1.4749   0.06494   0.03764  -0.0436   0.0263   1.0000 127.7486 300.0000
  16.000   1.4710   0.07163   0.04293  -0.0438   0.0252   1.0000 128.2162 300.0000
  16.500   1.4691   0.07827   0.04831  -0.0443   0.0240   1.0000 128.7144 300.0000
  17.000   1.4665   0.08494   0.05377  -0.0449   0.0231   1.0000 129.1246 300.0000
  17.500   1.4642   0.09193   0.05988  -0.0462   0.0221   1.0000 129.5968 300.0000
  18.000   1.4661   0.09794   0.06502  -0.0470   0.0213   1.0000 129.9751 300.0000
  18.500   1.4622   0.10540   0.07230  -0.0490   0.0205   1.0000 130.3819 300.0000
  19.000   1.4622   0.11220   0.07918  -0.0512   0.0197   1.0000 130.7660 300.0000
  19.500   1.4653   0.11825   0.08558  -0.0530   0.0190   1.0000 131.1143 300.0000
  20.000   1.4603   0.12623   0.09511  -0.0566   0.0184   1.0000 131.4591 300.0000
  20.500   1.4608   0.13318   0.10385  -0.0600   0.0178   1.0000 131.7782 300.0000
  21.000   1.4647   0.13921   0.11181  -0.0629   0.0173   1.0000 132.0799 300.0000
  21.500   1.4512   0.14941   0.12703  -0.0694   0.0168   1.0000 132.3454 300.0000
  22.000   1.4445   0.15826   0.14109  -0.0754   0.0163   1.0000 132.6094 300.0000
  22.500   1.4433   0.16587   0.15383  -0.0809   0.0159   1.0000 132.8438 300.0000
  23.000   1.4394   0.17403   0.16850  -0.0870   0.0156   1.0000 133.0515 300.0000
  23.500   1.4064   0.19012   0.20020  -0.1002   0.0154   1.0000 133.1512 300.0000
  24.000   1.3510   0.21375   0.25241  -0.1199   0.0155   1.0000 133.1216 300.0000
  24.500   1.2156   0.29243   0.45880  -0.1706   0.0181   1.0000 131.6097 300.0000
  25.000   1.2306   0.29642   0.47230  -0.1744   0.0175   1.0000 131.9523 300.0000
