  
       XFOIL         Version 6.99
  
 Calculated polar for: NACA 4412                                       
  
 1 1 Reynolds number fixed          Mach number fixed         
  
 xtrf =   1.000 (top)        1.000 (bottom)  
 Mach =   0.000     Re =     0.250 e 6     Ncrit =   9.000  9.000
  
   alpha    CL        CD       CDp       CM     Top_Xtr  Bot_Xtr  Top_Itr  Bot_Itr
  ------ -------- --------- --------- -------- -------- -------- -------- --------
 -16.000  -0.4583   0.18087   0.19446  -0.0136   1.0000   0.0321   1.0000 182.9169
 -15.500  -0.4420   0.17484   0.18489  -0.0166   1.0000   0.0330   1.0000 183.2381
 -15.000  -0.4303   0.16836   0.17324  -0.0210   1.0000   0.0351   1.0000 183.9816
 -14.500  -0.4117   0.16263   0.16596  -0.0228   1.0000   0.0361   1.0000 184.3237
 -14.000  -0.4053   0.15567   0.15412  -0.0278   1.0000   0.0382   1.0000 185.0066
 -13.500  -0.3843   0.15019   0.14842  -0.0285   1.0000   0.0395   1.0000 185.4281
 -13.000  -0.3778   0.14307   0.13833  -0.0325   1.0000   0.0416   1.0000 186.0600
 -12.500  -0.3611   0.13750   0.13221  -0.0337   1.0000   0.0433   1.0000 186.5365
 -12.000  -0.3555   0.13047   0.12358  -0.0369   1.0000   0.0455   1.0000 187.1343
 -11.500  -0.3451   0.12455   0.11694  -0.0386   1.0000   0.0481   1.0000 187.8118
 -11.000  -0.3408   0.11789   0.10982  -0.0406   1.0000   0.0497   1.0000 188.2078
 -10.500  -0.3593   0.10998   0.09955  -0.0456   1.0000   0.0530   1.0000 188.9982
 -10.000  -0.3378   0.10610   0.09768  -0.0421   1.0000   0.0544   1.0000 189.3157
  -9.500  -0.3795   0.09820   0.08757  -0.0453   1.0000   0.0575   1.0000 189.9998
  -9.000  -0.3665   0.09549   0.08701  -0.0394   1.0000   0.0585   1.0000 190.2121
  -8.500  -0.3870   0.09214   0.08386  -0.0348   1.0000   0.0605   1.0000 190.6160
  -8.000  -0.4632   0.05108   0.04172  -0.0763   0.9825   0.0452   4.3980 187.0680
  -7.500  -0.3967   0.05125   0.04269  -0.0804   0.9751   0.0506   5.5478 188.4240
  -7.000  -0.3336   0.04823   0.04001  -0.0878   0.9666   0.0647   6.7770 191.4542
  -6.500  -0.3088   0.02168   0.01120  -0.0969   0.9531   0.0504   8.5750 188.3787
  -6.000  -0.2357   0.01958   0.00922  -0.1007   0.9458   0.0559   9.5026 189.6467
  -5.500  -0.1626   0.01780   0.00763  -0.1043   0.9388   0.0629  10.3711 191.1195
  -5.000  -0.0948   0.01644   0.00659  -0.1067   0.9299   0.0717  11.4544 192.7405
  -4.500  -0.0302   0.01521   0.00567  -0.1082   0.9198   0.0831  12.6784 194.6145
  -4.000   0.0325   0.01415   0.00484  -0.1092   0.9090   0.0989  13.9712 196.9478
  -3.500   0.0887   0.01326   0.00425  -0.1089   0.8937   0.1194  15.7749 199.6758
  -3.000   0.1448   0.01249   0.00373  -0.1086   0.8775   0.1488  17.6915 203.2978
  -2.500   0.2003   0.01184   0.00330  -0.1081   0.8596   0.1904  19.7811 208.1535
  -2.000   0.2556   0.01127   0.00297  -0.1076   0.8403   0.2469  22.0413 214.4951
  -1.500   0.3092   0.01076   0.00273  -0.1069   0.8178   0.3246  24.6715 223.0819
  -1.000   0.3605   0.00994   0.00255  -0.1059   0.7945   0.5036  27.3944 242.8855
  -0.500   0.4030   0.00889   0.00261  -0.1014   0.7706   0.8913  30.1661 285.6896
   0.000   0.4889   0.00887   0.00238  -0.1073   0.7445   1.0000  33.2038 300.0000
   0.500   0.5398   0.00906   0.00227  -0.1060   0.7175   1.0000  36.3459 300.0000
   1.000   0.5912   0.00931   0.00220  -0.1049   0.6911   1.0000  39.4018 300.0000
   1.500   0.6431   0.00960   0.00219  -0.1039   0.6661   1.0000  42.2977 300.0000
   2.000   0.6954   0.00992   0.00222  -0.1031   0.6431   1.0000  44.9673 300.0000
   2.500   0.7476   0.01027   0.00230  -0.1023   0.6209   1.0000  47.5321 300.0000
   3.000   0.8003   0.01065   0.00240  -0.1016   0.6011   1.0000  49.8285 300.0000
   3.500   0.8530   0.01105   0.00252  -0.1010   0.5827   1.0000  51.9643 300.0000
   4.000   0.9056   0.01147   0.00267  -0.1003   0.5648   1.0000  54.0337 300.0000
   4.500   0.9578   0.01190   0.00283  -0.0996   0.5472   1.0000  56.0770 300.0000
   5.000   1.0095   0.01233   0.00299  -0.0989   0.5294   1.0000  58.1382 300.0000
   5.500   1.0601   0.01277   0.00315  -0.0979   0.5106   1.0000  60.3292 300.0000
   6.000   1.1092   0.01321   0.00324  -0.0966   0.4893   1.0000  62.8058 300.0000
   6.500   1.1563   0.01363   0.00331  -0.0950   0.4650   1.0000  65.6335 300.0000
   7.000   1.2022   0.01409   0.00339  -0.0932   0.4399   1.0000  68.5552 300.0000
   7.500   1.2462   0.01460   0.00347  -0.0911   0.4127   1.0000  71.7571 300.0000
   8.000   1.2876   0.01517   0.00356  -0.0886   0.3801   1.0000  75.6513 300.0000
   8.500   1.3244   0.01596   0.00372  -0.0854   0.3388   1.0000  80.6790 300.0000
   9.000   1.3531   0.01717   0.00406  -0.0811   0.2849   1.0000  87.3100 300.0000
   9.500   1.3681   0.01898   0.00476  -0.0748   0.2202   1.0000  95.4422 300.0000
  10.000   1.3741   0.02161   0.00606  -0.0680   0.1536   1.0000 104.1190 300.0000
  10.500   1.3774   0.02474   0.00784  -0.0618   0.1079   1.0000 110.4954 300.0000
  11.000   1.3807   0.02819   0.00998  -0.0565   0.0852   1.0000 113.9872 300.0000
  11.500   1.3855   0.03186   0.01241  -0.0522   0.0717   1.0000 116.2768 300.0000
  12.000   1.3888   0.03598   0.01522  -0.0486   0.0630   1.0000 117.8815 300.0000
  12.500   1.3910   0.04051   0.01841  -0.0458   0.0568   1.0000 119.1394 300.0000
  13.000   1.3941   0.04523   0.02179  -0.0435   0.0518   1.0000 120.2247 300.0000
  13.500   1.3972   0.05011   0.02529  -0.0416   0.0478   1.0000 121.1560 300.0000
  14.000   1.4022   0.05490   0.02866  -0.0399   0.0444   1.0000 121.9917 300.0000
  14.500   1.4092   0.05971   0.03220  -0.0387   0.0413   1.0000 122.8227 300.0000
  15.000   1.4169   0.06447   0.03564  -0.0375   0.0386   1.0000 123.5694 300.0000
  15.500   1.4273   0.06888   0.03868  -0.0363   0.0364   1.0000 124.2389 300.0000
  16.000   1.4378   0.07340   0.04192  -0.0354   0.0343   1.0000 124.8833 300.0000
  16.500   1.4436   0.07872   0.04611  -0.0348   0.0325   1.0000 125.4667 300.0000
  17.000   1.4604   0.08238   0.04846  -0.0337   0.0309   1.0000 126.0246 300.0000
  17.500   1.4518   0.09013   0.05574  -0.0351   0.0297   1.0000 126.4573 300.0000
  18.000   1.4638   0.09462   0.05943  -0.0350   0.0284   1.0000 126.9219 300.0000
  18.500   1.4498   0.10350   0.06887  -0.0378   0.0276   1.0000 127.2289 300.0000
  19.000   1.4323   0.11336   0.08041  -0.0420   0.0269   1.0000 127.5085 300.0000
  19.500   1.4272   0.12122   0.09012  -0.0456   0.0262   1.0000 127.7987 300.0000
  20.000   1.4224   0.12905   0.10048  -0.0495   0.0256   1.0000 128.0512 300.0000
  20.500   1.3838   0.14445   0.12378  -0.0602   0.0255   1.0000 128.1006 300.0000
  21.000   1.3414   0.16211   0.15343  -0.0736   0.0255   1.0000 128.0797 300.0000
  22.000   1.1457   0.26156   0.36675  -0.1433   0.0378   1.0000 123.8032 300.0000
  22.500   1.1576   0.26895   0.38766  -0.1493   0.0356   1.0000 124.4787 300.0000
  23.000   1.1758   0.27300   0.39812  -0.1517   0.0340   1.0000 124.9670 300.0000
  23.500   1.1857   0.28107   0.42381  -0.1594   0.0316   1.0000 125.7849 300.0000
  24.000   1.1988   0.28776   0.44466  -0.1651   0.0298   1.0000 126.4148 300.0000
  24.500   1.2144   0.29234   0.45908  -0.1688   0.0284   1.0000 126.9379 300.0000
  25.000   1.2268   0.29953   0.48346  -0.1755   0.0265   1.0000 127.6746 300.0000
